@<TRIPOS>MOLECULE
6QTN_GTP_ligands_n.pdb
 32 34 0 0 0
SMALL
GASTEIGER

@<TRIPOS>ATOM
      1  PG        27.1940   73.8540   45.8970 P.3   501  GTP501      0.5373
      2  O1G       28.4740   74.2030   45.1820 O.3   501  GTP501     -0.1143
      3  O2G       27.0320   72.3760   46.0960 O.3   501  GTP501     -0.1143
      4  O3G       26.0320   74.5020   45.1740 O.2   501  GTP501     -0.2221
      5  O3B       27.3320   74.4710   47.3920 O.3   501  GTP501     -0.2258
      6  PB        26.4680   75.7340   47.8830 P.3   501  GTP501      0.2277
      7  O1B       26.2280   76.7360   46.8100 O.2   501  GTP501     -0.5168
      8  O2B       27.1620   76.3530   49.0890 O.3   501  GTP501     -0.4368
      9  O3A       25.0780   75.0580   48.3260 O.3   501  GTP501     -0.2700
     10  PA        23.9000   75.8000   49.1460 P.3   501  GTP501      0.2189
     11  O1A       22.7600   76.1010   48.2110 O.2   501  GTP501     -0.5170
     12  O2A       24.3930   77.0600   49.8270 O.3   501  GTP501     -0.4371
     13  O5'       23.5770   74.6430   50.1980 O.3   501  GTP501     -0.3112
     14  C5'       22.3510   73.9690   50.3080 C.3   501  GTP501      0.1813
     15  C4'       21.8270   74.2130   51.7220 C.3   501  GTP501      0.1801
     16  O4'       21.7190   75.6150   51.9390 O.3   501  GTP501     -0.3306
     17  C3'       20.4290   73.6440   51.8510 C.3   501  GTP501      0.2161
     18  O3'       20.2550   73.2220   53.1840 O.3   501  GTP501     -0.2175
     19  C2'       19.5510   74.8380   51.5430 C.3   501  GTP501      0.2337
     20  O2'       18.2830   74.6930   52.1380 O.3   501  GTP501     -0.2155
     21  C1'       20.3620   75.9930   52.1150 C.3   501  GTP501      0.2409
     22  N9        20.1840   77.2790   51.4050 N.ar  501  GTP501     -0.2693
     23  C8        20.5380   77.5960   50.1150 C.ar  501  GTP501      0.1817
     24  N7        20.2340   78.9000   49.8900 N.ar  501  GTP501     -0.2173
     25  C5        19.7150   79.4290   51.0250 C.ar  501  GTP501      0.1748
     26  C6        19.2430   80.6980   51.3610 C.ar  501  GTP501      0.3023
     27  O6        19.2450   81.6290   50.5480 O.2   501  GTP501     -0.2633
     28  N1        18.7670   80.9180   52.6360 N.ar  501  GTP501     -0.1709
     29  C2        18.7540   79.9000   53.5640 C.ar  501  GTP501      0.2606
     30  N2        18.2890   80.1190   54.7940 N.pl3 501  GTP501     -0.0859
     31  N3        19.2180   78.6480   53.2230 N.ar  501  GTP501     -0.1918
     32  C4        19.6920   78.4190   51.9800 C.ar  501  GTP501      0.1723
@<TRIPOS>BOND
     1     4     1    2
     2     2     1    1
     3     1     3    1
     4     1     5    1
     5     7     6    2
     6     5     6    1
     7     6     9    1
     8     6     8    1
     9    11    10    2
    10     9    10    1
    11    10    12    1
    12    10    13    1
    13    24    23   ar
    14    24    25   ar
    15    23    22   ar
    16    13    14    1
    17    14    15    1
    18    27    26    2
    19    25    26   ar
    20    25    32   ar
    21    26    28   ar
    22    22    32   ar
    23    22    21    1
    24    19    17    1
    25    19    21    1
    26    19    20    1
    27    15    17    1
    28    15    16    1
    29    17    18    1
    30    16    21    1
    31    32    31   ar
    32    28    29   ar
    33    31    29   ar
    34    29    30    1
