@<TRIPOS>MOLECULE
6QTN_ACP_ligands_n.pdb
 45 47 0 0 0
SMALL
GASTEIGER

@<TRIPOS>ATOM
      1  PG         7.5990   50.0780   94.2600 P.3   401  ACP401      0.1201
      2  O1G        8.5180   50.4010   93.1460 O.2   401  ACP401     -0.4601
      3  O2G        7.4730   48.4770   94.4100 O.3   401  ACP401     -0.3571
      4  O3G        6.1480   50.6950   93.9450 O.3   401  ACP401     -0.3571
      5  PB         9.9440   50.2360   96.1400 P.3   401  ACP401      0.3723
      6  O1B       10.6650   50.1670   94.8500 O.2   401  ACP401     -0.2554
      7  O2B        9.9340   48.7640   96.7870 O.3   401  ACP401     -0.1398
      8  C3B        8.2380   50.7990   95.8100 C.3   401  ACP401      0.1055
      9  PA         9.9760   51.6370   98.4750 P.3   401  ACP401      0.2201
     10  O1A       10.6690   52.8030   99.0630 O.3   401  ACP401     -0.4371
     11  O2A        8.4550   52.0940   98.2130 O.2   401  ACP401     -0.5170
     12  O3A       10.7420   51.2680   97.0970 O.3   401  ACP401     -0.2487
     13  O5'       10.0750   50.4360   99.5550 O.3   401  ACP401     -0.3245
     14  C5'        8.9600   49.5560   99.4100 C.3   401  ACP401      0.0836
     15  C4'        8.3220   49.2720  100.7770 C.3   401  ACP401      0.1133
     16  O4'        8.9840   49.9740  101.8420 O.3   401  ACP401     -0.3456
     17  C3'        6.9040   49.8660  100.6530 C.3   401  ACP401      0.1135
     18  O3'        5.8840   48.9250  100.3230 O.3   401  ACP401     -0.3864
     19  C2'        6.6330   50.4550  102.0530 C.3   401  ACP401      0.1285
     20  O2'        5.6810   49.6640  102.7710 O.3   401  ACP401     -0.3847
     21  C1'        7.9720   50.3480  102.8040 C.3   401  ACP401      0.1665
     22  N9         8.3810   51.6410  103.3460 N.ar  401  ACP401     -0.2877
     23  C8         9.2280   52.4840  102.6950 C.ar  401  ACP401      0.0999
     24  N7         9.4180   53.5520  103.4060 N.ar  401  ACP401     -0.2346
     25  C5         8.7130   53.4680  104.5560 C.ar  401  ACP401      0.1287
     26  C6         8.5490   54.3140  105.6660 C.3   401  ACP401      0.2004
     27  N6         9.1940   55.5380  105.7320 N.3   401  ACP401     -0.2985
     28  N1         7.7610   53.9090  106.6530 N.2   401  ACP401     -0.2420
     29  C2         7.1440   52.7410  106.5920 C.2   401  ACP401      0.1049
     30  N3         7.2650   51.9160  105.5710 N.pl3 401  ACP401     -0.1840
     31  C4         8.0350   52.2340  104.5370 C.ar  401  ACP401      0.1528
     32 H3B1        8.2310   51.7660   95.7360 H     401  ACP401      0.0466
     33 H3B2        7.6660   50.5270   96.5450 H     401  ACP401      0.0466
     34 H5'1        8.2990   49.9670   98.8310 H     401  ACP401      0.0591
     35 H5'2        9.2580   48.7200   99.0190 H     401  ACP401      0.0591
     36  H4'        8.3360   48.3360  101.0320 H     401  ACP401      0.0647
     37  H3'        6.9320   50.5420   99.9580 H     401  ACP401      0.0647
     38 HO3'        5.2730   49.3560   99.9190 H     401  ACP401      0.2100
     39  H2'        6.3450   51.3750  101.9420 H     401  ACP401      0.0665
     40 HO2'        5.0160   49.5510  102.2550 H     401  ACP401      0.2101
     41  H1'        7.8550   49.6690  103.4870 H     401  ACP401      0.0866
     42  H8         9.6130   52.3180  101.8650 H     401  ACP401      0.1030
     43 HN61        9.6740   55.8070  105.0710 H     401  ACP401      0.1209
     44 HN62        9.1140   56.0300  106.4330 H     401  ACP401      0.1209
     45  H2         6.5990   52.4890  107.3020 H     401  ACP401      0.1015
@<TRIPOS>BOND
     1     2     1    2
     2     4     1    1
     3     1     3    1
     4     1     8    1
     5     6     5    2
     6    32     8    1
     7     8     5    1
     8     8    33    1
     9     5     7    1
    10     5    12    1
    11    12     9    1
    12    11     9    2
    13     9    10    1
    14     9    13    1
    15    34    14    1
    16    35    14    1
    17    14    13    1
    18    14    15    1
    19    38    18    1
    20    37    17    1
    21    18    17    1
    22    17    15    1
    23    17    19    1
    24    15    36    1
    25    15    16    1
    26    16    21    1
    27    42    23    1
    28    39    19    1
    29    19    20    1
    30    19    21    1
    31    40    20    1
    32    23    22   ar
    33    23    24   ar
    34    21    22    1
    35    21    41    1
    36    22    31   ar
    37    24    25   ar
    38    31    25   ar
    39    31    30    1
    40    25    26    1
    41    43    27    1
    42    30    29    1
    43    26    27    1
    44    26    28    1
    45    27    44    1
    46    29    28    2
    47    29    45    1
